*NODE
1, 0.000000, 0.000000, 0.000000
2, 10.000000, 0.000000, 0.000000
3, 20.000000, 0.000000, 0.000000
4, 0.000000, 10.000000, 0.000000
5, 10.000000, 10.000000, 0.000000
6, 20.000000, 10.000000, 0.000000
7, 0.000000, 20.000000, 0.000000
8, 10.000000, 20.000000, 0.000000
9, 20.000000, 20.000000, 0.000000
10, 0.000000, 0.000000, 10.000000
11, 10.000000, 0.000000, 10.000000
12, 20.000000, 0.000000, 10.000000
13, 0.000000, 10.000000, 10.000000
14, 10.000000, 10.000000, 10.000000
15, 20.000000, 10.000000, 10.000000
16, 0.000000, 20.000000, 10.000000
17, 10.000000, 20.000000, 10.000000
18, 20.000000, 20.000000, 10.000000
19, 0.000000, 0.000000, 20.000000
20, 10.000000, 0.000000, 20.000000
** ... 7 like lines cut
*ELEMENT, TYPE=C3D8, ELSET=SetA
1, 1, 2, 5, 4, 10, 11, 14, 13
2, 2, 3, 6, 5, 11, 12, 15, 14
3, 4, 5, 8, 7, 13, 14, 17, 16
4, 5, 6, 9, 8, 14, 15, 18, 17
*ELEMENT, TYPE=C3D8, ELSET=SetB
5, 10, 11, 14, 13, 19, 20, 23, 22
6, 11, 12, 15, 14, 20, 21, 24, 23
7, 13, 14, 17, 16, 22, 23, 26, 25
8, 14, 15, 18, 17, 23, 24, 27, 26
*ELSET, ELSET=Eall
SetA
SetB
*MATERIAL, NAME=MaterialSolid
*ELASTIC
210000, 0.3
*DENSITY
7.9e-09
*MATERIAL, NAME=MaterialSolid001
*ELASTIC
70000, 0.33
*DENSITY
2.7e-09
*SOLID SECTION, ELSET=SetA, MATERIAL=MaterialSolid
*SOLID SECTION, ELSET=SetB, MATERIAL=MaterialSolid001
*BOUNDARY
1, 1, 3, 0.0
4, 1, 3, 0.0
7, 1, 3, 0.0
2, 1, 3, 0.0
5, 1, 3, 0.0
8, 1, 3, 0.0
3, 1, 3, 0.0
6, 1, 3, 0.0
9, 1, 3, 0.0
*STEP
*STATIC
*CLOAD
19, 3, -111.1
22, 3, -111.1
25, 3, -111.1
20, 3, -111.1
23, 3, -111.1
26, 3, -111.1
21, 3, -111.1
24, 3, -111.1
27, 3, -111.1
*NODE FILE
U
*EL FILE
S, E, ENER
*END STEP
