*NODE
1, 0.000000, 0.000000, 0.0
2, 10.000000, 0.000000, 0.0
3, 20.000000, 0.000000, 0.0
4, 0.000000, 10.000000, 0.0
5, 10.000000, 10.000000, 0.0
6, 20.000000, 10.000000, 0.0
*ELEMENT, TYPE=S3, ELSET=MaterialSolidElementGeometry2D
1, 1, 2, 5
2, 1, 5, 4
3, 2, 3, 6
4, 2, 6, 5
*ELSET, ELSET=Eall
MaterialSolidElementGeometry2D
*MATERIAL, NAME=MaterialSolid
*ELASTIC
210000, 0.3
*DENSITY
7.9e-09
*BOUNDARY
1, 1, 3, 0.0
4, 1, 3, 0.0
*STEP
*STATIC
*CLOAD
3, 2, -500.0
6, 2, -500.0
*NODE FILE
U
*EL FILE
S, E, ENER
*END STEP
