*NODE
1, 0., 0., 0.
2, 1., 0., 0.
3, 0., 1., 0.
4, 0., 0., 1.
5, 1., 1., 0.
6, 1., 0., 1.
7, 0., 1., 1.
8, 1., 1., 1.
9, 0.5, 0.5, 0.5
10, 0.25, 0.25, 0.25
*ELEMENT, TYPE=C3D4, ELSET=MaterialSolidSolid
1, 1, 2, 3, 4
2, 1, 2, 3, 5
3, 1, 2, 3, 6
4, 1, 2, 3, 7
*ELEMENT, TYPE=C3D4, ELSET=NichtDesignSolid
5, 2, 3, 5, 8
6, 2, 4, 6, 8
*ELSET, ELSET=Eall
1, 2, 3, 4, 5, 6
*ELSET, ELSET=VerweisSet
MaterialSolidSolid
*ELSET, ELSET=Reihe, GENERATE
10, 20, 2
*MATERIAL, NAME=Steel
*ELASTIC
210000, 0.3
